Version 4
SHEET 1 1192 680
WIRE -256 -16 -256 -32
WIRE -256 -16 -336 -16
WIRE -192 -16 -256 -16
WIRE 16 -16 16 -32
WIRE 16 -16 -48 -16
WIRE 80 -16 16 -16
WIRE 560 0 560 -32
WIRE 560 0 480 0
WIRE 656 0 560 0
WIRE 656 32 656 0
WIRE 592 80 480 80
WIRE 480 96 480 80
WIRE -336 144 -336 64
WIRE -192 144 -192 64
WIRE -48 144 -48 64
WIRE 304 192 272 192
WIRE 480 192 480 176
WIRE 480 192 368 192
WIRE 656 192 656 128
WIRE 720 192 656 192
WIRE 784 192 720 192
WIRE 896 192 848 192
WIRE 960 192 896 192
WIRE 480 208 480 192
WIRE 896 208 896 192
WIRE 768 240 656 240
WIRE 592 288 480 288
WIRE 896 304 896 288
WIRE 720 336 720 192
WIRE 720 336 656 336
WIRE 560 368 480 368
WIRE 768 368 768 240
WIRE 768 368 560 368
WIRE 560 400 560 368
FLAG -256 -32 0
FLAG -336 144 VDD+
IOPIN -336 144 Out
FLAG -192 144 VDD-
IOPIN -192 144 Out
FLAG 960 192 out
IOPIN 960 192 Out
FLAG 560 400 VDD-
IOPIN 560 400 In
FLAG 560 -32 VDD+
IOPIN 560 -32 In
FLAG 272 192 Vin
IOPIN 272 192 In
FLAG 16 -32 0
FLAG -48 144 Vin
IOPIN -48 144 Out
FLAG 896 384 0
SYMBOL npn 592 32 R0
WINDOW 3 46 59 Left 2
SYMATTR InstName Q1
SYMATTR Prefix Qtip31
SYMBOL pnp 592 240 R0
WINDOW 0 59 36 Left 2
WINDOW 3 53 62 Left 2
SYMATTR InstName Q2
SYMATTR Prefix Qtip32
SYMBOL voltage -192 -32 R0
WINDOW 123 0 0 Left 0
WINDOW 39 0 0 Left 0
SYMATTR InstName V1
SYMATTR Value 12
SYMBOL voltage -336 80 R180
WINDOW 0 24 96 Left 2
WINDOW 3 24 16 Left 2
WINDOW 123 0 0 Left 0
WINDOW 39 0 0 Left 0
SYMATTR InstName V2
SYMATTR Value 12
SYMBOL res 880 192 R0
SYMATTR InstName R1
SYMATTR Value 8
SYMBOL res 464 -16 R0
SYMATTR InstName R2
SYMATTR Value 113k
SYMBOL res 464 80 R0
SYMATTR InstName R3
SYMATTR Value 7k
SYMBOL res 464 192 R0
SYMATTR InstName R4
SYMATTR Value 7k
SYMBOL res 464 272 R0
SYMATTR InstName R5
SYMATTR Value 113k
SYMBOL cap 368 176 R90
WINDOW 0 0 32 VBottom 2
WINDOW 3 41 30 VTop 2
SYMATTR InstName C1
SYMATTR Value 1µ
SYMBOL voltage -48 80 R180
WINDOW 0 24 96 Left 2
WINDOW 3 -95 -166 Left 2
WINDOW 123 0 0 Left 0
WINDOW 39 0 0 Left 0
SYMATTR InstName V3
SYMATTR Value SINE(0 5 1k)
SYMBOL voltage 80 80 R180
WINDOW 0 24 96 Left 2
WINDOW 3 24 16 Left 2
WINDOW 123 0 0 Left 0
WINDOW 39 0 0 Left 0
SYMATTR InstName V4
SYMATTR Value 0
SYMBOL diode 880 -16 R0
SYMATTR InstName D1
SYMATTR Value 1N4148
SYMBOL diode 880 80 R0
SYMATTR InstName D2
SYMATTR Value 1N4148
SYMBOL cap 848 176 R90
WINDOW 0 0 32 VBottom 2
WINDOW 3 32 32 VTop 2
SYMATTR InstName C2
SYMATTR Value 10µ
SYMBOL res 880 288 R0
SYMATTR InstName R6
SYMATTR Value 500
TEXT -320 -168 Left 2 !.lib C:\\Users\\Admin\\AppData\\Local\\LTspice\\TIP32.LIB
TEXT -320 -128 Left 2 !.lib C:\\Users\\Admin\\AppData\\Local\\LTspice\\TIP31.LIB
TEXT -408 520 Left 2 !.tran 10m
